[TITLE]


[JUNCTIONS]
;ID              	Elev        	Demand      	Pattern         
 O-Bartesta_Pump 	1188        	0           	                	;
 O-Clearwell_Pump	1149        	1           	2               	;
 O-Colley_Pump   	1186        	0           	                	;
 I-Cowen_Pumpa   	1276        	0           	                	;
 Dry_Fork_Meter  	1156        	1           	2               	;
 O-High_Service_Pump	1160        	1           	2               	;
 Little_Cowan_Meter	1174        	1           	2               	;
 Sandlick_Meter  	1230.3      	1           	2               	;
 Home-10_26      	1117        	1           	2               	;
 Home-10_7       	1359        	1           	4               	;
 Home-11_14      	1174        	1           	2               	;
 Home-11_16      	1142        	1           	2               	;
 Home-11_36      	1148        	1           	2               	;
 Home-12_8       	1280        	1           	2               	;
 Home-13_41      	1205        	1           	2               	;
 Home-15_21      	1123        	1           	2               	;
 Home-15_6       	1372        	1           	4               	;
 Home-16_19      	1122        	1           	2               	;
 Home-17_10      	1214        	1           	2               	;
 Home-17_3       	1418        	1           	4               	;
 Home-2_79       	1178        	1           	3               	;
 Home-2_9        	1254        	1           	2               	;
 Home-20_18      	1127        	1           	2               	;
 Home-21_64      	1164        	1           	2               	;
 Home-22_23      	1146        	1           	2               	;
 Home-22_44      	1153        	1           	2               	;
 Home-24_81      	1237        	1           	3               	;
 Home-26_15      	1148        	1           	2               	;
 Home-28_43      	1170        	1           	2               	;
 Home-38_82      	1191        	1           	3               	;
 Home-4_22       	1127        	1           	2               	;
 Home-4_45       	1137        	1           	2               	;
 Home-4_75       	1178        	1           	2               	;
 Home-5_76       	1190        	1           	3               	;
 Home-5_77       	1178        	1           	3               	;
 Home-55_60      	1169        	1           	2               	;
 Home-6_2        	1424        	1           	4               	;
 Home-6_32       	1121        	1           	2               	;
 Home-7_20       	1124        	1           	2               	;
 Home-7_5        	1379        	1           	4               	;
 Home-7_73       	1172        	1           	2               	;
 Home-8_1        	1448        	1           	4               	;
 Home-8_46       	1136        	1           	2               	;
 Home-8_50       	1140        	1           	2               	;
 Home-9_4        	1408        	1           	4               	;
 J-1             	1160        	1           	2               	;
 J-2             	1160        	1           	2               	;
 J-3             	1165        	1           	2               	;
 J-4             	1160        	1           	2               	;
 J-5             	1229        	1           	3               	;
 J-6             	1267        	1           	3               	;
 J-7             	1424        	1           	4               	;
 J-8             	1405        	1           	4               	;
 J-9             	1375        	1           	4               	;
 J-10            	1448        	1           	4               	;
 J-11            	1372        	1           	4               	;
 J-12            	1359        	1           	4               	;
 J-13            	1516        	1           	4               	;
 J-14            	1360        	1           	4               	;
 J-15            	1310        	1           	4               	;
 J-16            	1310        	1           	4               	;
 J-17            	1291        	1           	2               	;
 J-18            	1268        	1           	2               	;
 J-19            	1256        	1           	2               	;
 J-20            	1215        	1           	2               	;
 J-21            	1255        	1           	2               	;
 J-22            	1296        	1           	1               	;
 J-23            	1360        	1           	1               	;
 J-24            	1181        	1           	2               	;
 J-25            	1166        	1           	2               	;
 J-26            	1160        	1           	2               	;
 J-27            	1282        	1           	2               	;
 J-28            	1144        	1           	2               	;
 J-29            	1142        	1           	2               	;
 J-30            	1128        	1           	2               	;
 J-31            	1146        	1           	2               	;
 J-32            	1118        	1           	2               	;
 J-33            	1145        	1           	2               	;
 J-34            	1212        	1           	2               	;
 J-35            	1147        	1           	2               	;
 J-36            	1119        	1           	2               	;
 J-37            	1124        	1           	2               	;
 J-38            	1179        	1           	2               	;
 J-39            	1174        	1           	3               	;
 J-40            	1190        	1           	3               	;
 J-41            	1262        	1           	3               	;
 J-42            	1196        	1           	3               	;
 J-43            	1207        	1           	3               	;
 J-44            	1242        	1           	3               	;
 J-45            	1255        	1           	3               	;
 J-46            	1204        	1           	3               	;
 J-47            	1207        	1           	3               	;
 J-48            	1160        	1           	2               	;
 J-49            	1200        	1           	2               	;
 J-50            	1166        	1           	2               	;
 J-51            	1214        	1           	2               	;
 J-52            	1131        	1           	2               	;
 J-53            	0           	1           	2               	;
 J-1_4th         	1160        	1           	2               	;
 J-1_Alaska      	1154        	1           	2               	;
 J-1_Alcoa       	1190        	1           	3               	;
 J-1_Avonelle    	1147        	1           	2               	;
 J-1_Bach        	1184        	1           	2               	;
 J-1_Bartesta_Branch	1296        	1           	1               	;
 J-1_Brass       	1185        	1           	3               	;
 J-1_Bridge      	1145        	1           	2               	;
 J-1_Broad       	1153        	1           	2               	;
 J-1_Caudill_Town	1166        	1           	2               	;
 J-1_Center      	1250        	1           	3               	;
 J-1_Church      	1176        	1           	2               	;
 J-1_Circle      	1167        	1           	2               	;
 J-1_Cola        	1149        	1           	2               	;
 J-1_College     	1146        	1           	2               	;
 J-1_Cornelia    	1153        	1           	2               	;
 J-1_Cougar      	1185        	1           	3               	;
 J-1_CS_1015     	1241        	1           	2               	;
 J-1_CS_1018     	1160        	1           	2               	;
 J-1_CS_1047     	1143        	1           	2               	;
 J-1_CS_1058     	1134        	1           	2               	;
 J-1_CS_1082     	1132        	1           	2               	;
 J-1_Day_Hollow  	1221        	1           	2               	;
 J-1_Deadwood    	1258        	1           	3               	;
 J-1_Depot       	1248        	1           	2               	;
 J-1_Dorcus_Branch	1217        	1           	2               	;
 J-1_Easy        	1320        	1           	2               	;
 J-1_Extension   	1314        	1           	2               	;
 J-1_Fairview    	1306        	1           	3               	;
 J-1_Fletcher_Park	1320        	1           	2               	;
 J-1_Golf_Course 	1194        	1           	3               	;
 J-1_Harris      	1254        	1           	2               	;
 J-1_Hazard      	1129        	1           	2               	;
 J-1_Heritage    	1195        	1           	3               	;
 J-1_High        	1137        	1           	2               	;
 J-1_Hospital    	1165        	1           	2               	;
 J-1_Indiana     	1152        	1           	2               	;
 J-1_Jenkins     	1148        	1           	2               	;
 J-1_Kentucky    	1151        	1           	2               	;
 J-1_KY_119      	1191        	1           	2               	;
 J-1_KY_15       	1132        	1           	2               	;
 J-1_KY_931      	1359        	1           	4               	;
 J-1_Little_Cowan	1138        	1           	2               	;
 J-1_Long        	1142        	1           	2               	;
 J-1_Madison     	1145        	1           	2               	;
 J-1_Maggie      	1194        	1           	3               	;
 J-1_Main        	1149        	1           	2               	;
 J-1_Maple       	1130        	1           	2               	;
 J-1_Marlow      	1138        	1           	2               	;
 J-1_Mayking     	1229        	1           	3               	;
 J-1_Mt_View     	1195        	1           	2               	;
 J-1_Old_KY_15   	1131        	1           	2               	;
 J-1_Orchard     	1110        	1           	2               	;
 J-1_Parkway_Plaza	1136        	1           	2               	;
 J-1_Pine        	1242        	1           	2               	;
 J-1_Pointview   	1282        	1           	2               	;
 J-1_Post_Office 	1189        	1           	2               	;
 J-1_Powell_Widner	1121        	1           	2               	;
 J-1_Scenic      	1241        	1           	2               	;
 J-1_School_Tank 	1243        	1           	2               	;
 J-1_Shoemaker   	1208        	1           	2               	;
 J-1_Solomon     	1170        	1           	2               	;
 J-1_Stone       	1204        	1           	2               	;
 J-1_Tennessee   	1185        	1           	2               	;
 J-1_Texas       	1152        	1           	2               	;
 J-1_Vermillion  	1171        	1           	2               	;
 J-1_Virginia    	1184        	1           	2               	;
 J-1_Walnut      	1166        	1           	2               	;
 J-1_Wash_Board  	1245        	1           	2               	;
 J-1_Webb        	1162        	1           	2               	;
 J-1_Whitco_Loop 	1128        	1           	2               	;
 J-1_White_Oak   	1243        	1           	3               	;
 J-10_Jenkins    	1176        	1           	3               	;
 J-10_KY_15      	1211        	1           	2               	;
 J-10_Old_KY_15  	1151        	1           	2               	;
 J-11_KY_15      	1200        	1           	2               	;
 J-11_Old_KY_15  	1150        	1           	2               	;
 J-12_Circle     	1162        	1           	2               	;
 J-12_KY_15      	1194        	1           	2               	;
 J-12_Old_KY_15  	1148        	1           	2               	;
 J-13_KY_15      	1191        	1           	2               	;
 J-2_Alaska      	1151        	1           	2               	;
 J-2_Alcoa       	1190        	1           	3               	;
 J-2_Bridge      	1150        	1           	2               	;
 J-2_Broad       	1146        	1           	2               	;
 J-2_Caudill_Town	1135        	1           	2               	;
 J-2_Church      	1183        	1           	2               	;
 J-2_Circle      	1201        	1           	2               	;
 J-2_Cola        	1150        	1           	2               	;
 J-2_College     	1207        	1           	2               	;
 J-2_Cornelia    	1154        	1           	2               	;
 J-2_Cougar      	1276        	1           	3               	;
 J-2_CS_1047     	1148        	1           	2               	;
 J-2_CS_1082     	1137        	1           	2               	;
 J-2_Depot       	1214        	1           	2               	;
 J-2_Golf_Course 	1195        	1           	3               	;
 J-2_Hazard      	1136        	1           	2               	;
 J-2_High        	1154        	1           	2               	;
 J-2_Hospital    	1246        	1           	2               	;
 J-2_Indiana     	1155        	1           	2               	;
 J-2_Jenkins     	1156        	1           	2               	;
 J-2_KY_119      	1172        	1           	2               	;
 J-2_KY_15       	1148        	1           	2               	;
 J-2_KY_931      	1191        	1           	2               	;
 J-2_Long        	1138        	1           	2               	;
 J-2_Madison     	1143        	1           	2               	;
 J-2_Main        	1158        	1           	2               	;
 J-2_Maple       	1118        	1           	2               	;
 J-2_Marlow      	1138        	1           	2               	;
 J-2_Mayking     	1245        	1           	3               	;
 J-2_Mt_View     	1209        	1           	2               	;
 J-2_Old_KY_15   	1137        	1           	2               	;
 J-2_Orchard     	1115        	1           	2               	;
 J-2_Pine        	1259        	1           	2               	;
 J-2_Pointview   	1315        	1           	2               	;
 J-2_Powell_Widner	1121        	1           	2               	;
 J-2_Solomon     	1178        	1           	2               	;
 J-2_Stone       	1160        	1           	2               	;
 J-2_Texas       	1152        	1           	2               	;
 J-2_Vermillion  	1205        	1           	2               	;
 J-2_Whitco_Loop 	1179        	1           	2               	;
 J-3_Alaska      	1142        	1           	2               	;
 J-3_Caudill_Town	1150        	1           	2               	;
 J-3_Church      	1158        	1           	2               	;
 J-3_Circle      	1161        	1           	2               	;
 J-3_Cola        	1145        	1           	2               	;
 J-3_Cornelia    	1152        	1           	2               	;
 J-3_Cougar      	1276        	1           	3               	;
 J-3_Golf_Course 	1198        	1           	3               	;
 J-3_Hazard      	1131        	1           	2               	;
 J-3_Hospital    	1224        	1           	2               	;
 J-3_Indiana     	1170        	1           	2               	;
 J-3_Jenkins     	1171        	1           	2               	;
 J-3_KY_119      	1185        	1           	2               	;
 J-3_KY_15       	1246        	1           	2               	;
 J-3_KY_931      	1184        	1           	2               	;
 J-3_Madison     	1143        	1           	2               	;
 J-3_Main        	1162        	1           	2               	;
 J-3_Maple       	1124        	1           	2               	;
 J-3_Old_KY_15   	1135        	1           	2               	;
 J-3_Pointview   	1300        	1           	2               	;
 J-3_Powell_Widner	1121        	1           	2               	;
 J-3_Stone       	1235        	1           	2               	;
 J-3_Texas       	1156        	1           	2               	;
 J-3_Vermillion  	1223        	1           	2               	;
 J-4_Circle      	1163        	1           	2               	;
 J-4_Cola        	1146        	1           	2               	;
 J-4_Cougar      	1282        	1           	3               	;
 J-4_Golf_Course 	1195        	1           	3               	;
 J-4_Hospital    	1243        	1           	2               	;
 J-4_Indiana     	1175        	1           	2               	;
 J-4_Jenkins     	1178        	1           	2               	;
 J-4_KY_119      	1196        	1           	3               	;
 J-4_KY_15       	1245        	1           	2               	;
 J-4_KY_931      	1161        	1           	2               	;
 J-4_Madison     	1150        	1           	2               	;
 J-4_Main        	1149        	1           	2               	;
 J-4_Maple       	1123        	1           	2               	;
 J-4_Maplea      	1138        	1           	2               	;
 J-4_Old_KY_15   	1157        	1           	2               	;
 J-4_Texas       	1158        	1           	2               	;
 J-4_Vermillion  	1279        	1           	2               	;
 J-5_Cougar      	1282        	1           	3               	;
 J-5_Golf_Course 	1267        	1           	3               	;
 J-5_Jenkins     	1166        	1           	2               	;
 J-5_KY_119      	1175        	1           	3               	;
 J-5_KY_15       	1197        	1           	2               	;
 J-5_KY_931      	1138        	1           	2               	;
 J-5_Madison     	1158        	1           	2               	;
 J-5_Main        	1147        	1           	2               	;
 J-5_Old_KY_15   	1167        	1           	2               	;
 J-5_Texas       	1158        	1           	2               	;
 J-6_Cougar      	1258        	1           	3               	;
 J-6_Golf_Course 	1269        	1           	3               	;
 J-6_Jenkins     	1187        	1           	2               	;
 J-6_KY_119      	1180        	1           	3               	;
 J-6_KY_15       	1181        	1           	2               	;
 J-6_KY_931      	1122        	1           	2               	;
 J-6_Madison     	1144        	1           	2               	;
 J-6_Main        	1146        	1           	2               	;
 J-6_Old_KY_15   	1174        	1           	2               	;
 J-7_Cougar      	1299        	1           	3               	;
 J-7_Jenkins     	1200        	1           	2               	;
 J-7_KY_119      	1185        	1           	3               	;
 J-7_KY_15       	1197        	1           	2               	;
 J-7_KY_931      	1129        	1           	2               	;
 J-7_Madison     	1156        	1           	2               	;
 J-7_Old_KY_15   	1164        	1           	2               	;
 J-8_Jenkins     	1199        	1           	3               	;
 J-8_KY_119      	1188        	1           	3               	;
 J-8_KY_15       	1221        	1           	2               	;
 J-8_KY_931      	1132        	1           	2               	;
 J-8_Old_KY_15   	1145        	1           	2               	;
 J-9_Jenkins     	1199        	1           	3               	;
 J-9_KY_15       	1231        	1           	2               	;
 J-9_KY_931      	1139        	1           	2               	;
 J-9_Old_KY_15   	1158        	1           	2               	;
 J-Fields_Cliff  	1170        	1           	2               	;
 I-Bartesta_Pump 	1188        	0           	                	;
 I-Clearwell_Pump	1149        	1           	2               	;
 I-Colley_Pump   	1186        	0           	                	;
 O-Cowen_Pumpa   	1276        	0           	                	;
 I-High_Service_Pump	1160        	1           	2               	;

[RESERVOIRS]
;ID              	Head        	Pattern         
 R-1             	1150        	                	;

[TANKS]
;ID              	Elevation   	InitLevel   	MinLevel    	MaxLevel    	Diameter    	MinVol      	VolCurve        	Overflow
 Bartesta_Tank   	1477        	8           	0           	10.5        	18          	0           	                	;
 Clearwell       	1160        	31.86       	0           	35          	32          	0           	                	;
 Colley_Tank     	1459        	9           	0           	19          	50          	0           	                	;
 Cowan_Tank      	1644        	12          	0           	20          	32.67       	0           	                	;
 Sawmill_Road_Tank	1362        	30.13       	0           	34          	50          	0           	                	;
 Tunnel_Hill_Tank	1375        	47.91       	0           	48          	25          	0           	                	;

[PIPES]
;ID              	Node1           	Node2           	Length      	Diameter    	Roughness   	MinorLoss   	Status
 P-1             	J-3             	J-1_CS_1018     	414.899     	8           	140         	0           	Open  	;
 P-2             	O-Clearwell_Pump	Clearwell       	12.1        	8           	140         	0           	Open  	;
 P-3             	J-2             	J-48            	16.299      	8           	140         	0           	Open  	;
 P-4             	J-4             	J-1             	93.699      	8           	140         	0           	Open  	;
 P-5             	J-4             	J-2             	23.1        	8           	140         	0           	Open  	;
 P-6             	J-48            	J-1_Hospital    	20.7        	10          	140         	0           	Open  	;
 P-7             	I-High_Service_Pump	Clearwell       	11.399      	8           	140         	0           	Open  	;
 P-8             	I-Clearwell_Pump	R-1             	12.8        	8           	140         	0           	Open  	;
 P-9             	O-High_Service_Pump	J-48            	14.8        	8           	140         	0           	Open  	;
 P-10            	J-49            	J-6_Old_KY_15   	695.599     	6           	140         	0           	Open  	;
 P-11            	J-50            	J-2_Circle      	867.2       	6           	140         	0           	Open  	;
 P-12            	J-51            	J-4_Hospital    	757.099     	6           	140         	0           	Open  	;
 P-13            	J-52            	J-2_Bridge      	519.799     	8           	140         	0           	Open  	;
 P-15            	J-53            	J-2_Caudill_Town	755.299     	6           	140         	0           	Open  	;
 P-16            	J-53            	Sandlick_Meter  	463.5       	10          	140         	0           	Open  	;
 P-17            	J-1_Scenic      	J-27            	386.2       	6           	140         	0           	Open  	;
 P-18            	J-1_Caudill_Town	Sawmill_Road_Tank	2251        	8           	140         	0           	Open  	;
 P-36            	Home-38_82      	J-2_Mayking     	2020.099    	8           	140         	0           	Open  	;
 P-1__Wash_Board 	J-6_Jenkins     	J-1_Wash_Board  	951.5       	6           	140         	0           	Open  	;
 P-1_3rd         	J-3_Madison     	J-1_Indiana     	273.7       	6           	140         	0           	Open  	;
 P-1_4th         	J-2_Indiana     	J-4_Madison     	256.399     	4           	140         	0           	Open  	;
 P-1_931b        	Home-6_2        	Home-8_1        	940.2       	6           	150         	0           	Open  	;
 P-1_Alaska      	J-4_Old_KY_15   	J-1_Alaska      	227.1       	6           	140         	0           	Open  	;
 P-1_Alcoa       	J-8_Jenkins     	J-1_Alcoa       	488.5       	6           	140         	0           	Open  	;
 P-1_Antique     	J-2_Whitco_Loop 	J-34            	291.5       	4           	150         	0           	Open  	;
 P-1_Astor_Fields	Cowan_Tank      	J-10            	1542        	6           	150         	0           	Open  	;
 P-1_Avonelle    	J-9_Old_KY_15   	J-1_Avonelle    	211.399     	8           	140         	0           	Open  	;
 P-1_Bach        	J-5_Old_KY_15   	J-1_Vermillion  	221.1       	6           	140         	0           	Open  	;
 P-1_Bartesta_Branch	J-3_KY_931      	I-Bartesta_Pump 	184.699     	6           	150         	0           	Open  	;
 P-1_Bentley     	J-12_Old_KY_15  	J-1_Main        	475.799     	4           	140         	0           	Open  	;
 P-1_Brass       	J-8_KY_119      	J-1_Brass       	478.1       	3           	140         	0           	Open  	;
 P-1_Bridge      	J-10_Old_KY_15  	J-1_Bridge      	242.899     	8           	140         	0           	Open  	;
 P-1_Broad       	J-2_Main        	J-1_Broad       	357.799     	4           	140         	0           	Open  	;
 P-1_Caudill_Town	J-1_Caudill_Town	J-53            	76.599      	6           	140         	0           	Open  	;
 P-1_Center      	J-5_Golf_Course 	J-1_Center      	507.899     	4           	140         	0           	Open  	;
 P-1_Church      	J-12_Old_KY_15  	J-1_Church      	328.1       	4           	140         	0           	Open  	;
 P-1_Circle      	J-3_Hospital    	J-1_Circle      	806.9       	6           	140         	0           	Open  	;
 P-1_Coffey      	J-1_Alaska      	J-2_Alaska      	100.699     	6           	140         	0           	Open  	;
 P-1_Cola        	J-1_Cola        	J-2_Jenkins     	162.899     	6           	140         	0           	Open  	;
 P-1_College     	J-6_Main        	J-1_College     	122         	8           	140         	0           	Open  	;
 P-1_Cornelia    	J-1_Texas       	J-1_Cornelia    	433.2       	4           	140         	0           	Open  	;
 P-1_Cougar      	J-5_KY_119      	J-1_Cougar      	346.5       	8           	140         	0           	Open  	;
 P-1_Cowan       	J-1_College     	J-7_KY_15       	578.599     	8           	140         	0           	Open  	;
 P-1_CR_1559     	J-43            	J-3_Golf_Course 	349.399     	4           	140         	0           	Open  	;
 P-1_CS_1001     	J-4_KY_119      	J-39            	576         	8           	140         	0           	Open  	;
 P-1_CS_1015     	Tunnel_Hill_Tank	J-1_CS_1015     	1576.699    	6           	140         	0           	Open  	;
 P-1_CS_1018     	J-1_Hospital    	J-3             	79.8        	10          	140         	0           	Open  	;
 P-1_CS_1047     	J-1_CS_1047     	J-4_Main        	124.199     	6           	140         	0           	Open  	;
 P-1_CS_1053     	J-1_Main        	J-11_Old_KY_15  	988.599     	8           	140         	0           	Open  	;
 P-1_CS_1058     	J-3_Alaska      	J-1_CS_1058     	490.5       	6           	140         	0           	Open  	;
 P-1_CS_1058_30  	J-3_Alaska      	J-7_Old_KY_15   	351.7       	8           	140         	0           	Open  	;
 P-1_CS_1082     	J-1_CS_1082     	Home-11_36      	505.399     	6           	150         	0           	Open  	;
 P-1_CS_1082a    	Home-11_36      	J-2_CS_1082     	746.9       	6           	150         	0           	Open  	;
 P-1_CSX         	J-1_Orchard     	Home-10_26      	1700.4      	4           	150         	0           	Open  	;
 P-1_CSXa        	Home-10_26      	J-1_Powell_Widner	1000.4      	4           	150         	0           	Open  	;
 P-1_Day_Hollow  	J-2_High        	J-1_Day_Hollow  	630.5       	4           	150         	0           	Open  	;
 P-1_Dayton      	J-2_Maple       	J-4_Maplea      	346.399     	6           	150         	0           	Open  	;
 P-1_Deadwood    	J-6_Golf_Course 	J-1_Deadwood    	117.599     	4           	140         	0           	Open  	;
 P-1_Depot       	J-5_KY_15       	J-1_Depot       	1048        	6           	140         	0           	Open  	;
 P-1_Dorcus_Branch	J-2_Solomon     	J-1_Dorcus_Branch	484.6       	6           	140         	0           	Open  	;
 P-1_Driftwood_Loop	J-2_Powell_Widner	Home-6_32       	289.5       	6           	150         	0           	Open  	;
 P-1_Driftwood_Loopa	Home-6_32       	J-36            	986.7       	6           	150         	0           	Open  	;
 P-1_Duncan      	J-2_Orchard     	J-32            	335.5       	3           	150         	0           	Open  	;
 P-1_Easy        	J-7_KY_15       	J-1_Easy        	853.7       	8           	140         	0           	Open  	;
 P-1_Extension   	J-1_Stone       	J-1_Extension   	780.4       	3           	140         	0           	Open  	;
 P-1_Fairview    	J-6_KY_119      	J-1_Fairview    	683.9       	3           	140         	0           	Open  	;
 P-1_Fields_Cliff	J-1_Long        	J-Fields_Cliff  	832.799     	6           	140         	0           	Open  	;
 P-1_Fletcher_Park	J-10_KY_15      	J-1_Fletcher_Park	1483        	8           	140         	0           	Open  	;
 P-1_Golf_Course 	J-2_Golf_Course 	J-1_Golf_Course 	241.399     	6           	140         	0           	Open  	;
 P-1_Hale        	J-1_Harris      	J-2_Depot       	887.799     	4           	140         	0           	Open  	;
 P-1_Harris      	J-1_Harris      	J-1_School_Tank 	193.3       	4           	140         	0           	Open  	;
 P-1_Hayes       	J-1_Webb        	J-1_CS_1047     	744.099     	4           	140         	0           	Open  	;
 P-1_Hazard      	J-1_CS_1082     	J-1_Hazard      	407.299     	6           	150         	0           	Open  	;
 P-1_Heritage    	J-4_Golf_Course 	J-42            	224.8       	6           	140         	0           	Open  	;
 P-1_High        	J-1_High        	J-1_CS_1082     	469.2       	6           	150         	0           	Open  	;
 P-1_Indiana     	J-1_Jenkins     	J-1_Indiana     	267         	6           	140         	0           	Open  	;
 P-1_Jenkins     	J-5_Main        	J-1_Jenkins     	1136.699    	6           	140         	0           	Open  	;
 P-1_Kentucky    	J-2_Texas       	J-1_Kentucky    	2082.699    	6           	140         	0           	Open  	;
 P-1_KY_15       	J-1_KY_15       	J-1_Old_KY_15   	145.1       	8           	150         	0           	Open  	;
 P-1_KY_931      	J-7             	Home-6_2        	195.899     	6           	150         	0           	Open  	;
 P-1_KY_931a     	Home-8_1        	J-10            	84.5        	6           	150         	0           	Open  	;
 P-1_Letcher     	J-7_Madison     	J-9_KY_15       	766.099     	6           	140         	0           	Open  	;
 P-1_Library     	J-1_Broad       	J-3_Main        	199.5       	4           	140         	0           	Open  	;